Circuit: * C:\Users\Gonzalo\Documents\FIUBA\Materias\Trabajo Profesional Ingeniería Electrónica (86.99)\Proyecto\Hardware\TP-Hardware_PCB\sensores\orp.asc

Early termination of direct N-R iteration.
Direct Newton iteration failed to find .op point.  (Use ".option noopiter" to skip.)
Starting Gmin stepping
Gmin = 10
vernier = 0.5
vernier = 0.25
vernier = 0.125
Gmin = 5.5165
vernier = 0.0625
vernier = 0.03125
vernier = 0.015625
vernier = 0.0078125
Gmin = 5.49501
vernier = 0.00390625
vernier = 0.00195313
vernier = 0.000976563
vernier = 0.000488281
Gmin = 5.50104
Gmin = 0
Gmin stepping failed

Starting source stepping with srcstepmethod=0
Source Step = 3.0303%
Source Step = 33.3333%
Source Step = 63.6364%
Source Step = 93.9394%
Source stepping succeeded in finding the operating point.


Date: Tue Oct 11 21:39:38 2022
Total elapsed time: 0.232 seconds.

tnom = 27
temp = 27
method = modified trap
totiter = 3755
traniter = 2090
tranpoints = 1046
accept = 1046
rejected = 0
matrix size = 52
fillins = 185
solver = Alternate
Matrix Compiler1: 17.16 KB object code size  3.1/2.1/[1.6]
Matrix Compiler2: 8.70 KB object code size  1.6/1.6/[0.7]

