Circuit: * C:\Users\Gonzalo\Documents\FIUBA\Materias\Trabajo Profesional Ingeniería Electrónica (86.99)\Proyecto\Hardware\TP-Hardware_PCB\sensores\orp.asc

Early termination of direct N-R iteration.
Direct Newton iteration failed to find .op point.  (Use ".option noopiter" to skip.)
Starting Gmin stepping
Gmin = 10
vernier = 0.5
vernier = 0.25
vernier = 0.125
vernier = 0.0625
Gmin = 8.61953
vernier = 0.03125
vernier = 0.015625
vernier = 0.0078125
vernier = 0.00390625
Gmin = 8.47038
vernier = 0.00195313
vernier = 0.000976563
vernier = 0.000488281
Gmin = 0
Gmin stepping succeeded in finding the operating point.


Date: Fri Sep 23 13:16:11 2022
Total elapsed time: 0.706 seconds.

tnom = 27
temp = 27
method = modified trap
totiter = 3487
traniter = 2090
tranpoints = 1046
accept = 1046
rejected = 0
matrix size = 53
fillins = 205
solver = Alternate
Matrix Compiler1: 17.52 KB object code size  4.0/3.6/[2.4]
Matrix Compiler2: 8.99 KB object code size  7.0/7.6/[3.5]

