Circuit: * C:\Users\Gonzalo\Documents\FIUBA\Materias\Trabajo Profesional Ingeniería Electrónica (86.99)\Proyecto\Hardware\TP-Hardware_PCB\sensores\ph.asc

Early termination of direct N-R iteration.
Direct Newton iteration failed to find .op point.  (Use ".option noopiter" to skip.)
Starting Gmin stepping
Gmin = 10
vernier = 0.5
vernier = 0.25
vernier = 0.125
vernier = 0.0625
Gmin = 8.61953
vernier = 0.03125
vernier = 0.015625
vernier = 0.0078125
vernier = 0.00390625
Gmin = 8.47038
vernier = 0.00195313
vernier = 0.000976563
vernier = 0.000488281
Gmin = 0
Gmin stepping succeeded in finding the operating point.


Date: Sun Nov 06 17:07:49 2022
Total elapsed time: 0.275 seconds.

tnom = 27
temp = 27
method = modified trap
totiter = 3587
traniter = 2090
tranpoints = 1046
accept = 1046
rejected = 0
matrix size = 53
fillins = 174
solver = Alternate
Matrix Compiler1: 16.45 KB object code size  3.7/2.2/[1.5]
Matrix Compiler2: off  [1.3]/1.6/1.5

