Circuit: * C:\Users\Gonzalo\Documents\FIUBA\Materias\Trabajo Profesional Ingeniería Electrónica (86.99)\Proyecto\Hardware\TP-Hardware_PCB\sensores\ph.asc

Early termination of direct N-R iteration.
Direct Newton iteration failed to find .op point.  (Use ".option noopiter" to skip.)
Starting Gmin stepping
Gmin = 10
vernier = 0.5
vernier = 0.25
vernier = 0.125
Gmin = 5.5165
vernier = 0.0625
vernier = 0.03125
vernier = 0.015625
vernier = 0.0078125
Gmin = 5.49501
vernier = 0.00390625
vernier = 0.00195313
vernier = 0.000976563
vernier = 0.000488281
Gmin = 5.50104
Gmin = 0
Gmin stepping succeeded in finding the operating point.


Date: Wed Sep 07 20:19:43 2022
Total elapsed time: 0.220 seconds.

tnom = 27
temp = 27
method = modified trap
totiter = 3478
traniter = 2090
tranpoints = 1046
accept = 1046
rejected = 0
matrix size = 54
fillins = 178
solver = Alternate
Matrix Compiler1: 13.88 KB object code size  3.9/2.6/[1.9]
Matrix Compiler2: 8.64 KB object code size  1.8/2.9/[0.8]

