Circuit: * C:\Users\Gonzalo\Documents\FIUBA\Materias\Trabajo Profesional Ingeniería Electrónica (86.99)\Proyecto\Hardware\TP-Hardware_PCB\sensores\temperatura.asc

Direct Newton iteration failed to find .op point.  (Use ".option noopiter" to skip.)
Starting Gmin stepping
Gmin = 10
Gmin = 1.07374
Gmin = 0.115292
Gmin = 0.0123794
Gmin = 0.00132923
Gmin = 0.000142725
vernier = 0.5
vernier = 0.25
vernier = 0.125
vernier = 0.0625
Gmin = 0.000119404
vernier = 0.03125
vernier = 0.015625
vernier = 0.0078125
Gmin = 0.000115975
vernier = 0.0104167
Gmin = 0.000113292
vernier = 0.0138889
vernier = 0.0185185
Gmin = 0.000108928
vernier = 0.0246913
vernier = 0.0329218
Gmin = 0.000102323
vernier = 0.0438957
Gmin = 9.27461e-005
vernier = 0.0585276
vernier = 0.0780367
Gmin = 7.86828e-005
vernier = 0.104049
vernier = 0.138732
Gmin = 6.06133e-005
vernier = 0.184976
Gmin = 4.03219e-005
vernier = 0.246634
vernier = 0.328846
Gmin = 2.05297e-005
vernier = 0.438461
vernier = 0.21923
vernier = 0.109615
vernier = 0.0548076
vernier = 0.0274038
vernier = 0.0137019
vernier = 0.00685095
vernier = 0.00342548
Gmin = 1.75291e-005
vernier = 0.00171274
vernier = 0.000856369
vernier = 0.000428184
Gmin = 0
Gmin stepping failed

Starting source stepping with srcstepmethod=0
Source Step = 3.0303%
Source Step = 25.7576%
Source Step = 33.3333%
Source Step = 40.9091%
Source Step = 48.4848%
Source Step = 56.0606%
vernier = 0.375
Source Step = 64.0152%
Source Step = 75.3788%
Source Step = 86.7424%
Source Step = 89.0329%
Source Step = 89.0773%
Source Step = 89.1217%
Source Step = 89.1661%
Source Step = 89.2105%
Source Step = 89.2549%
vernier = 0.00219727
Source Step = 89.3214%
Source Step = 89.388%
Source Step = 89.4546%
Source Step = 89.5212%
Source Step = 89.5878%
vernier = 0.0032959
Source Step = 89.6843%
Source Step = 89.7842%
Source Step = 89.8841%
Source Step = 89.9839%
Source Step = 90.0838%
Source Step = 90.1837%
Source Step = 90.2836%
Source Step = 90.3834%
Source Step = 90.4833%
Source Step = 90.5832%
Source Step = 90.6831%
Source Step = 90.783%
Source Step = 90.8828%
Source Step = 90.9827%
Source Step = 91.0826%
Source Step = 91.1825%
Source Step = 91.2823%
Source Step = 91.3822%
Source Step = 91.4821%
Source Step = 91.582%
Source Step = 91.6818%
Source Step = 91.7817%
Source Step = 91.8816%
Source Step = 91.9815%
Source Step = 92.0813%
Source Step = 92.1812%
Source Step = 92.2811%
Source Step = 92.381%
Source Step = 92.4808%
Source Step = 92.5807%
Source Step = 92.6806%
Source Step = 92.7805%
Source Step = 92.8803%
Source Step = 92.9802%
Source Step = 93.0801%
Source Step = 93.18%
Source Step = 93.2798%
Source Step = 93.3797%
Starting source stepping with srcstepmethod=1
Source Step = 3.0303%
Source Step = 33.3333%
Source Step = 63.6364%
Source Step = 88.6364%
vernier = 0.0625
Source stepping failed

Pseudo Transient succeeded in finding the operating point at 1.22686 s.
Semiconductor Device Operating Points:
                        --- Diodes ---
Name:  d:u1:e_n:2  d:u1:e_n:1  d:u1:i_np:2  d:u1:i_np:1  d:u1:i_nn:2
Model: u1:e_n:dvn  u1:e_n:dvn  u1:i_np:dvnf u1:i_np:dvnf u1:i_nn:dvnf
Id:      1.00e-02    1.00e-02    1.00e-02     1.00e-02     1.00e-02
Vd:      8.34e-01    8.34e-01    8.34e-01     8.34e-01     8.34e-01
Req:     2.59e+00    2.59e+00    2.59e+00     2.59e+00     2.59e+00
CAP:     0.00e+00    0.00e+00    0.00e+00     0.00e+00     0.00e+00

Name:  d:u1:i_nn:1
Model: u1:i_nn:dvnf
Id:      1.00e-02
Vd:      8.34e-01
Req:     2.59e+00
CAP:     0.00e+00



Date: Wed Sep 07 21:11:13 2022
Total elapsed time: 184.757 seconds.

tnom = 27
temp = 27
method = trap
totiter = 1272
traniter = 0
tranpoints = 0
accept = 0
rejected = 0
matrix size = 136
fillins = 154
Matrix Compiler1: 20.43 KB object code size
Matrix Compiler2: 15.74 KB object code size  2.9/8.6/[2.8]

